/*--------------------------------*- C++ -*----------------------------------*\ 
| =========                 |                                                 |
| \      /  F ield         | OpenFOAM: The Open Source CFD Toolbox           |
|  \    /   O peration     | Version:  6                                   |
|   \  /    A nd           | Web:      www.OpenFOAM.com                      |
|    \/     M anipulation  |                                                 |
\*---------------------------------------------------------------------------*/
FoamFile
{
    version     2.0;
    format      ascii;
    class       dictionary;
    object      blockMeshDict;
}
// * * * * * * * * * * * * * * * * * * * * * * * * * * * * * * * * * * * * * //
// * Mesh Name: Naca4412 Re=400000.0           //
convertToMeters 1;
vertices
(
	// vertex ID=0; name=vLE_z0_2
	name vLE_z0_2 (-49.99142695359309	0.9260144727440335	0.0)
	// vertex ID=1; name=vLE_z0_1
	name vLE_z0_1 (-0.19996291901437238	0.004000756330976134	0.0)
	// vertex ID=2; name=vSS1_z0_1
	name vSS1_z0_1 (-0.1385435116337944	0.1530035108280999	0.0)
	// vertex ID=3; name=vSS1_z0_2
	name vSS1_z0_2 (-27.62822444186362	41.68788177814998	0.0)
	// vertex ID=4; name=vLE_z1_2
	name vLE_z1_2 (-49.99142695359309	0.9260144727440335	1.0)
	// vertex ID=5; name=vLE_z1_1
	name vLE_z1_1 (-0.19996291901437238	0.004000756330976134	1.0)
	// vertex ID=6; name=vSS1_z1_1
	name vSS1_z1_1 (-0.1385435116337944	0.1530035108280999	1.0)
	// vertex ID=7; name=vSS1_z1_2
	name vSS1_z1_2 (-27.62822444186362	41.68788177814998	1.0)
	// vertex ID=8; name=vSS2_z0_1
	name vSS2_z0_1 (0.23048441241562875	0.29251806879080267	0.0)
	// vertex ID=9; name=vSS2_z0_2
	name vSS2_z0_2 (-4.667392296092813	49.85107740770067	0.0)
	// vertex ID=10; name=vSS2_z1_1
	name vSS2_z1_1 (0.23048441241562875	0.29251806879080267	1.0)
	// vertex ID=11; name=vSS2_z1_2
	name vSS2_z1_2 (-4.667392296092813	49.85107740770067	1.0)
	// vertex ID=12; name=vSS3_z0_1
	name vSS3_z0_1 (0.9297980121710484	0.22399600651235785	0.0)
	// vertex ID=13; name=vSS3_z0_2
	name vSS3_z0_2 (0.9297980121710484	49.85107740770067	0.0)
	// vertex ID=14; name=vSS3_z1_1
	name vSS3_z1_1 (0.9297980121710484	0.22399600651235785	1.0)
	// vertex ID=15; name=vSS3_z1_2
	name vSS3_z1_2 (0.9297980121710484	49.85107740770067	1.0)
	// vertex ID=16; name=vTET_z0_1
	name vTET_z0_1 (1.0492237197067786	0.1938850737343541	0.0)
	// vertex ID=17; name=vTET_z0_2
	name vTET_z0_2 (1.4838051875258005	49.85107740770067	0.0)
	// vertex ID=18; name=vTET_z1_1
	name vTET_z1_1 (1.0492237197067786	0.1938850737343541	1.0)
	// vertex ID=19; name=vTET_z1_2
	name vTET_z1_2 (1.4838051875258005	49.85107740770067	1.0)
	// vertex ID=20; name=vWT_z0_1
	name vWT_z0_1 (1.75	0.30437982572004907	0.0)
	// vertex ID=21; name=vWT_z0_2
	name vWT_z0_2 (4.352867337381596	49.85107740770067	0.0)
	// vertex ID=22; name=vWT_z1_1
	name vWT_z1_1 (1.75	0.30437982572004907	1.0)
	// vertex ID=23; name=vWT_z1_2
	name vWT_z1_2 (4.352867337381596	49.85107740770067	1.0)
	// vertex ID=24; name=vOUTT_z0_1
	name vOUTT_z0_1 (76.0	13.772342258161057	0.0)
	// vertex ID=25; name=vOUTT_z0_2
	name vOUTT_z0_2 (76.0	50.0	0.0)
	// vertex ID=26; name=vOUTT_z1_1
	name vOUTT_z1_1 (76.0	13.772342258161057	1.0)
	// vertex ID=27; name=vOUTT_z1_2
	name vOUTT_z1_2 (76.0	50.0	1.0)
	// vertex ID=28; name=vPS1_z0_2
	name vPS1_z0_2 (-17.538042887715253	-46.835442631304524	0.0)
	// vertex ID=29; name=vPS1_z0_1
	name vPS1_z0_1 (-0.1457689236497551	-0.14270887496401574	0.0)
	// vertex ID=30; name=vPS1_z1_2
	name vPS1_z1_2 (-17.538042887715253	-46.835442631304524	1.0)
	// vertex ID=31; name=vPS1_z1_1
	name vPS1_z1_1 (-0.1457689236497551	-0.14270887496401574	1.0)
	// vertex ID=32; name=vPS2_z0_2
	name vPS2_z0_2 (-4.794162165186973	-49.79101659586492	0.0)
	// vertex ID=33; name=vPS2_z0_1
	name vPS2_z0_1 (0.039208263779252114	-0.2261244816234597	0.0)
	// vertex ID=34; name=vPS2_z1_2
	name vPS2_z1_2 (-4.794162165186973	-49.79101659586492	1.0)
	// vertex ID=35; name=vPS2_z1_1
	name vPS2_z1_1 (0.039208263779252114	-0.2261244816234597	1.0)
	// vertex ID=36; name=vPS3_z0_2
	name vPS3_z0_2 (0.9029561920557306	-49.79101659586492	0.0)
	// vertex ID=37; name=vPS3_z0_1
	name vPS3_z0_1 (0.9029561920557306	-0.20109910153661892	0.0)
	// vertex ID=38; name=vPS3_z1_2
	name vPS3_z1_2 (0.9029561920557306	-49.79101659586492	1.0)
	// vertex ID=39; name=vPS3_z1_1
	name vPS3_z1_1 (0.9029561920557306	-0.20109910153661892	1.0)
	// vertex ID=40; name=vTEB_z0_2
	name vTEB_z0_2 (1.4362680001847885	-49.79101659586492	0.0)
	// vertex ID=41; name=vTEB_z0_1
	name vTEB_z0_1 (1.0016865323657667	-0.19999288889502853	0.0)
	// vertex ID=42; name=vTEB_z1_2
	name vTEB_z1_2 (1.4362680001847885	-49.79101659586492	1.0)
	// vertex ID=43; name=vTEB_z1_1
	name vTEB_z1_1 (1.0016865323657667	-0.19999288889502853	1.0)
	// vertex ID=44; name=vWB_z0_2
	name vWB_z0_2 (4.352867337381596	-49.79101659586492	0.0)
	// vertex ID=45; name=vWB_z0_1
	name vWB_z0_1 (1.75	-0.23925196718220787	0.0)
	// vertex ID=46; name=vWB_z1_2
	name vWB_z1_2 (4.352867337381596	-49.79101659586492	1.0)
	// vertex ID=47; name=vWB_z1_1
	name vWB_z1_1 (1.75	-0.23925196718220787	1.0)
	// vertex ID=48; name=vOUTB_z0_2
	name vOUTB_z0_2 (76.0	-50.0	0.0)
	// vertex ID=49; name=vOUTB_z0_1
	name vOUTB_z0_1 (76.0	-7.3246842629147775	0.0)
	// vertex ID=50; name=vOUTB_z1_2
	name vOUTB_z1_2 (76.0	-50.0	1.0)
	// vertex ID=51; name=vOUTB_z1_1
	name vOUTB_z1_1 (76.0	-7.3246842629147775	1.0)
	// vertex ID=52; name=vLE_z0
	name vLE_z0 (2.8e-06	0.00029789	0.0)
	// vertex ID=53; name=vSS1_z0
	name vSS1_z0 (0.00846623	0.01740065	0.0)
	// vertex ID=54; name=vLE_z1
	name vLE_z1 (2.8e-06	0.00029789	1.0)
	// vertex ID=55; name=vSS1_z1
	name vSS1_z1 (0.00846623	0.01740065	1.0)
	// vertex ID=56; name=vSS2_z0
	name vSS2_z0 (0.2501546	0.09348771	0.0)
	// vertex ID=57; name=vSS2_z1
	name vSS2_z1 (0.2501546	0.09348771	1.0)
	// vertex ID=58; name=vSS3_z0
	name vSS3_z0 (0.8847275	0.02914055	0.0)
	// vertex ID=59; name=vSS3_z1
	name vSS3_z1 (0.8847275	0.02914055	1.0)
	// vertex ID=60; name=vTET_z0
	name vTET_z0 (1.0	-0.0	0.0)
	// vertex ID=61; name=vTET_z1
	name vTET_z1 (1.0	-0.0	1.0)
	// vertex ID=62; name=vWT_z0
	name vWT_z0 (1.75	0.0	0.0)
	// vertex ID=63; name=vWT_z1
	name vWT_z1 (1.75	0.0	1.0)
	// vertex ID=64; name=vOUTT_z0
	name vOUTT_z0 (76.0	3.238739511876198	0.0)
	// vertex ID=65; name=vOUTT_z1
	name vOUTT_z1 (76.0	3.238739511876198	1.0)
	// vertex ID=66; name=vPS1_z0
	name vPS1_z0 (0.00401727	-0.01017927	0.0)
	// vertex ID=67; name=vPS1_z1
	name vPS1_z1 (0.00401727	-0.01017927	1.0)
	// vertex ID=68; name=vPS2_z0
	name vPS2_z0 (0.05861939	-0.02706869	0.0)
	// vertex ID=69; name=vPS2_z1
	name vPS2_z1 (0.05861939	-0.02706869	1.0)
	// vertex ID=70; name=vPS3_z0
	name vPS3_z0 (0.9000238	-0.0011206	0.0)
	// vertex ID=71; name=vPS3_z1
	name vPS3_z1 (0.9000238	-0.0011206	1.0)
);
edges
(
	// edge ID=0;	name=erLE_z0_2; Start Vertex=vLE_z0_1 (ID=1); Last Vertex=vLE_z0_2 (ID=0)
	spline 1 0 () 
	// edge ID=1;	name=erSS1_z0_2; Start Vertex=vSS1_z0_1 (ID=2); Last Vertex=vSS1_z0_2 (ID=3)
	spline 2 3 () 
	// edge ID=2;	name=erSS1_z1_2; Start Vertex=vSS1_z1_1 (ID=6); Last Vertex=vSS1_z1_2 (ID=7)
	spline 6 7 () 
	// edge ID=3;	name=erLE_z1_2; Start Vertex=vLE_z1_1 (ID=5); Last Vertex=vLE_z1_2 (ID=4)
	spline 5 4 () 
	// edge ID=4;	name=eSS1_z0_2; Start Vertex=vLE_z0_2 (ID=0); Last Vertex=vSS1_z0_2 (ID=3)
	spline 0 3 ( (-49.88262056098516 3.424605553679142 0.0) (-49.65117118768642 5.896818845112725 0.0) (-49.30185372727224 8.32766488167486 0.0) (-48.84534281603704 10.685063531338642 0.0) (-48.29395521262414 12.951867115018224 0.0) (-47.660573070514644 15.117834309160997 0.0) (-46.957935471070684 17.1772127122233 0.0) (-46.19857799139049 19.126518004236175 0.0) (-45.39552956110674 20.962075342256302 0.0) (-44.559649896979664 22.685522077761686 0.0) (-43.700442063095124 24.300231341567326 0.0) (-42.826724788225604 25.809646115454086 0.0) (-41.94496851613491 27.219913611956756 0.0) (-41.061613277455216 28.535719544349828 0.0) (-40.1807774881872 29.76388914989791 0.0) (-39.306228223169235 30.910292812635067 0.0) (-38.440892247151574 31.98072097754213 0.0) (-37.58604420525407 32.981844083694405 0.0) (-36.74396917844859 33.91811585702498 0.0) (-35.9148540973057 34.79550670885415 0.0) (-35.09939580922457 35.61858652356805 0.0) (-34.29772625381679 36.39183482921107 0.0) (-33.50974836207268 37.11934763848232 0.0) (-32.73503513940849 37.80499233996985 0.0) (-31.97299405788805 38.45230424591324 0.0) (-31.223039452091058 39.06439995372159 0.0) (-30.484410155593537 39.644183348309376 0.0) (-29.756519636888815 40.19411274349869 0.0) (-29.03832989092606 40.71671595269321 0.0) (-28.32922342532757 41.21396575032296 0.0)) 
	// edge ID=5;	name=eSS1_z0_1; Start Vertex=vLE_z0_1 (ID=1); Last Vertex=vSS1_z0_1 (ID=2)
	spline 1 2 ( (-0.19949231552394064 0.01480090457471657 0.0) (-0.19848934795074571 0.025510740620450903 0.0) (-0.19697144258908894 0.03607059544669944 0.0) (-0.1949807800641482 0.04634773624535458 0.0) (-0.19256649793049654 0.0562708233400729 0.0) (-0.18977964672205858 0.065798841636644 0.0) (-0.18667069472428277 0.0749090305288932 0.0) (-0.18328948544556198 0.08358693481694471 0.0) (-0.179687965284427 0.0918173471690252 0.0) (-0.17590938386791866 0.09960659787104675 0.0) (-0.1719912454923805 0.10696844836626931 0.0) (-0.1679682872329024 0.11391701918181635 0.0) (-0.16386569366453968 0.12047732744782702 0.0) (-0.15970829862982086 0.12666871361739931 0.0) (-0.15551152003274882 0.13251921567959163 0.0) (-0.15128895209267695 0.13805320161054027 0.0) (-0.14705073814860628 0.14329484911016852 0.0) (-0.1427999549010163 0.14827193553477763 0.0)) 
	// edge ID=6;	name=eSS1_z1_1; Start Vertex=vLE_z1_1 (ID=5); Last Vertex=vSS1_z1_1 (ID=6)
	spline 5 6 ( (-0.19949231552394064 0.01480090457471657 1.0) (-0.19848934795074571 0.025510740620450903 1.0) (-0.19697144258908894 0.03607059544669944 1.0) (-0.1949807800641482 0.04634773624535458 1.0) (-0.19256649793049654 0.0562708233400729 1.0) (-0.18977964672205858 0.065798841636644 1.0) (-0.18667069472428277 0.0749090305288932 1.0) (-0.18328948544556198 0.08358693481694471 1.0) (-0.179687965284427 0.0918173471690252 1.0) (-0.17590938386791866 0.09960659787104675 1.0) (-0.1719912454923805 0.10696844836626931 1.0) (-0.1679682872329024 0.11391701918181635 1.0) (-0.16386569366453968 0.12047732744782702 1.0) (-0.15970829862982086 0.12666871361739931 1.0) (-0.15551152003274882 0.13251921567959163 1.0) (-0.15128895209267695 0.13805320161054027 1.0) (-0.14705073814860628 0.14329484911016852 1.0) (-0.1427999549010163 0.14827193553477763 1.0)) 
	// edge ID=7;	name=eSS1_z1_2; Start Vertex=vLE_z1_2 (ID=4); Last Vertex=vSS1_z1_2 (ID=7)
	spline 4 7 ( (-49.88262056098516 3.424605553679142 1.0) (-49.65117118768642 5.896818845112725 1.0) (-49.30185372727224 8.32766488167486 1.0) (-48.84534281603704 10.685063531338642 1.0) (-48.29395521262414 12.951867115018224 1.0) (-47.660573070514644 15.117834309160997 1.0) (-46.957935471070684 17.1772127122233 1.0) (-46.19857799139049 19.126518004236175 1.0) (-45.39552956110674 20.962075342256302 1.0) (-44.559649896979664 22.685522077761686 1.0) (-43.700442063095124 24.300231341567326 1.0) (-42.826724788225604 25.809646115454086 1.0) (-41.94496851613491 27.219913611956756 1.0) (-41.061613277455216 28.535719544349828 1.0) (-40.1807774881872 29.76388914989791 1.0) (-39.306228223169235 30.910292812635067 1.0) (-38.440892247151574 31.98072097754213 1.0) (-37.58604420525407 32.981844083694405 1.0) (-36.74396917844859 33.91811585702498 1.0) (-35.9148540973057 34.79550670885415 1.0) (-35.09939580922457 35.61858652356805 1.0) (-34.29772625381679 36.39183482921107 1.0) (-33.50974836207268 37.11934763848232 1.0) (-32.73503513940849 37.80499233996985 1.0) (-31.97299405788805 38.45230424591324 1.0) (-31.223039452091058 39.06439995372159 1.0) (-30.484410155593537 39.644183348309376 1.0) (-29.756519636888815 40.19411274349869 1.0) (-29.03832989092606 40.71671595269321 1.0) (-28.32922342532757 41.21396575032296 1.0)) 
	// edge ID=8;	name=zextrvLE_z0_2; Start Vertex=vLE_z0_2 (ID=0); Last Vertex=vLE_z1_2 (ID=4)
	spline 0 4 () 
	// edge ID=9;	name=zextrvLE_z0_1; Start Vertex=vLE_z0_1 (ID=1); Last Vertex=vLE_z1_1 (ID=5)
	spline 1 5 () 
	// edge ID=10;	name=zextrvSS1_z0_1; Start Vertex=vSS1_z0_1 (ID=2); Last Vertex=vSS1_z1_1 (ID=6)
	spline 2 6 () 
	// edge ID=11;	name=zextrvSS1_z0_2; Start Vertex=vSS1_z0_2 (ID=3); Last Vertex=vSS1_z1_2 (ID=7)
	spline 3 7 () 
	// edge ID=12;	name=erSS2_z0_2; Start Vertex=vSS2_z0_1 (ID=8); Last Vertex=vSS2_z0_2 (ID=9)
	spline 8 9 () 
	// edge ID=13;	name=erSS2_z1_2; Start Vertex=vSS2_z1_1 (ID=10); Last Vertex=vSS2_z1_2 (ID=11)
	spline 10 11 () 
	// edge ID=14;	name=eSS2_z0_2; Start Vertex=vSS1_z0_2 (ID=3); Last Vertex=vSS2_z0_2 (ID=9)
	spline 3 9 ( (-26.93475258448099 42.14002874207643 0.0) (-26.247990803454513 42.57197419696959 0.0) (-25.567124376232115 42.985135840317916 0.0) (-24.891931936291787 43.38045693666008 0.0) (-24.221897228098044 43.758971884562285 0.0) (-23.55667001823292 44.12153754705187 0.0) (-22.896475145160156 44.46864572326365 0.0) (-22.241289170545752 44.80089186188458 0.0) (-21.591386654528936 45.11869268802853 0.0) (-20.947433042394312 45.422272211504705 0.0) (-20.31013507824715 45.7118517720405 0.0) (-19.68012362336822 45.98770304017479 0.0) (-19.05835986676661 46.24997285671339 0.0) (-18.44584774008936 46.49882268216898 0.0) (-17.843282355471644 46.73456435758255 0.0) (-17.251461394592283 46.95748362804951 0.0) (-16.670954451956707 47.167963856435655 0.0) (-16.10218888552888 47.366439909840274 0.0) (-15.545419038073568 47.55339860563259 0.0) (-15.000641633987849 47.72939479870658 0.0) (-14.467740070280309 47.894992523460246 0.0) (-13.946746889745718 48.050683166781205 0.0) (-13.437174648328726 48.1970843213646 0.0) (-12.938709229196336 48.33472464823097 0.0) (-12.450880758100487 48.464141723342884 0.0) (-11.973216541634732 48.58583760281468 0.0) (-11.505371798334346 48.70024994484312 0.0) (-11.046763494472714 48.807844283935914 0.0) (-10.597108733827174 48.90898589767683 0.0) (-10.155728841749006 49.00410245527571 0.0) (-9.722320500179947 49.093511617288215 0.0) (-9.296663707360157 49.177496065909594 0.0) (-8.878081371838025 49.25640755243117 0.0) (-8.466449560574443 49.33047073714937 0.0) (-8.06137793416385 49.39994505639864 0.0) (-7.6624561503489375 49.46507483747737 0.0) (-7.269649777118535 49.52602974883821 0.0) (-6.8825210136726485 49.58303191029252 0.0) (-6.500834764466313 49.63625841563118 0.0) (-6.124370038339578 49.685873915839274 0.0) (-5.7530055653291114 49.73202126305394 0.0) (-5.386532889412762 49.77484673944538 0.0) (-5.0246921831031175 49.81449331021566 0.0)) 
	// edge ID=15;	name=eSS2_z0_1; Start Vertex=vSS1_z0_1 (ID=2); Last Vertex=vSS2_z0_1 (ID=8)
	spline 2 8 ( (-0.13427952662922282 0.15751480123541656 0.0) (-0.1300077693968983 0.16182553049427217 0.0) (-0.1257253912552672 0.16595517047684427 0.0) (-0.12142811952829073 0.16992177851392928 0.0) (-0.11710996343763395 0.17374259703987943 0.0) (-0.11276366251155223 0.177433649743653 0.0) (-0.10838152556836424 0.18100938505488637 0.0) (-0.10395449210237415 0.18448348023323752 0.0) (-0.09947362246755526 0.18786795973399478 0.0) (-0.09492749384370423 0.19117514593077284 0.0) (-0.09030572802131029 0.19441520080129188 0.0) (-0.0855958064074545 0.19759848375259992 0.0) (-0.08078616469792396 0.20073347468830574 0.0) (-0.07586369421381806 0.2038285852278784 0.0) (-0.07081480754492847 0.2068913885212717 0.0) (-0.06562799190516715 0.20992726118664035 0.0) (-0.06029056491239218 0.21294148621824915 0.0) (-0.0547907672329317 0.21593799902820748 0.0) (-0.049119926660640634 0.21891849789305462 0.0) (-0.04326953324218301 0.22188419928753833 0.0) (-0.03723395225811576 0.22483451915211414 0.0) (-0.031011323649577253 0.22776698704601883 0.0) (-0.024602522232988595 0.230677986408162 0.0) (-0.01801107741347288 0.23356300640069916 0.0) (-0.011244788067066441 0.23641608070685358 0.0) (-0.004314552280357445 0.2392306640486759 0.0) (0.0027674671781134225 0.2420003744303302 0.0) (0.009986705261630868 0.24471867567219804 0.0) (0.017328114872173173 0.24737962126574264 0.0) (0.02477652065788448 0.24997795875936113 0.0) (0.03231731980770573 0.2525092909025304 0.0) (0.039937268664048606 0.25497024955482633 0.0) (0.04762436371887876 0.257358290133841 0.0) (0.05536691124101713 0.25967136430712484 0.0) (0.0631563034066851 0.2619086755654584 0.0) (0.07098453388321466 0.2640696891929239 0.0) (0.07884501616759806 0.2661545037333716 0.0) (0.08673256943346108 0.26816353381125874 0.0) (0.09464199920666261 0.2700973547793725 0.0) (0.10257015962210914 0.2719569522957437 0.0) (0.11051330186469131 0.2737432197507073 0.0) (0.11846975823300397 0.27545745946110284 0.0) (0.1264372559992802 0.27710074286915287 0.0) (0.13441318917055936 0.2786741110636384 0.0) (0.1423973777126479 0.2801790009297247 0.0) (0.15038792695770223 0.2816164007485975 0.0) (0.1583838086633446 0.2829875275455946 0.0) (0.16638487139860425 0.28429354786990946 0.0) (0.17438926089152584 0.2855354093153528 0.0) (0.1823970351453094 0.2867142692811701 0.0) (0.19040764054213474 0.28783113494252477 0.0) (0.19842056664664168 0.28888697366335714 0.0) (0.20643500373868356 0.28988267557221575 0.0) (0.21445059044234896 0.2908191743977815 0.0) (0.22246727046758755 0.29169737068086266 0.0)) 
	// edge ID=16;	name=eSS2_z1_1; Start Vertex=vSS1_z1_1 (ID=6); Last Vertex=vSS2_z1_1 (ID=10)
	spline 6 10 ( (-0.13427952662922282 0.15751480123541656 1.0) (-0.1300077693968983 0.16182553049427217 1.0) (-0.1257253912552672 0.16595517047684427 1.0) (-0.12142811952829073 0.16992177851392928 1.0) (-0.11710996343763395 0.17374259703987943 1.0) (-0.11276366251155223 0.177433649743653 1.0) (-0.10838152556836424 0.18100938505488637 1.0) (-0.10395449210237415 0.18448348023323752 1.0) (-0.09947362246755526 0.18786795973399478 1.0) (-0.09492749384370423 0.19117514593077284 1.0) (-0.09030572802131029 0.19441520080129188 1.0) (-0.0855958064074545 0.19759848375259992 1.0) (-0.08078616469792396 0.20073347468830574 1.0) (-0.07586369421381806 0.2038285852278784 1.0) (-0.07081480754492847 0.2068913885212717 1.0) (-0.06562799190516715 0.20992726118664035 1.0) (-0.06029056491239218 0.21294148621824915 1.0) (-0.0547907672329317 0.21593799902820748 1.0) (-0.049119926660640634 0.21891849789305462 1.0) (-0.04326953324218301 0.22188419928753833 1.0) (-0.03723395225811576 0.22483451915211414 1.0) (-0.031011323649577253 0.22776698704601883 1.0) (-0.024602522232988595 0.230677986408162 1.0) (-0.01801107741347288 0.23356300640069916 1.0) (-0.011244788067066441 0.23641608070685358 1.0) (-0.004314552280357445 0.2392306640486759 1.0) (0.0027674671781134225 0.2420003744303302 1.0) (0.009986705261630868 0.24471867567219804 1.0) (0.017328114872173173 0.24737962126574264 1.0) (0.02477652065788448 0.24997795875936113 1.0) (0.03231731980770573 0.2525092909025304 1.0) (0.039937268664048606 0.25497024955482633 1.0) (0.04762436371887876 0.257358290133841 1.0) (0.05536691124101713 0.25967136430712484 1.0) (0.0631563034066851 0.2619086755654584 1.0) (0.07098453388321466 0.2640696891929239 1.0) (0.07884501616759806 0.2661545037333716 1.0) (0.08673256943346108 0.26816353381125874 1.0) (0.09464199920666261 0.2700973547793725 1.0) (0.10257015962210914 0.2719569522957437 1.0) (0.11051330186469131 0.2737432197507073 1.0) (0.11846975823300397 0.27545745946110284 1.0) (0.1264372559992802 0.27710074286915287 1.0) (0.13441318917055936 0.2786741110636384 1.0) (0.1423973777126479 0.2801790009297247 1.0) (0.15038792695770223 0.2816164007485975 1.0) (0.1583838086633446 0.2829875275455946 1.0) (0.16638487139860425 0.28429354786990946 1.0) (0.17438926089152584 0.2855354093153528 1.0) (0.1823970351453094 0.2867142692811701 1.0) (0.19040764054213474 0.28783113494252477 1.0) (0.19842056664664168 0.28888697366335714 1.0) (0.20643500373868356 0.28988267557221575 1.0) (0.21445059044234896 0.2908191743977815 1.0) (0.22246727046758755 0.29169737068086266 1.0)) 
	// edge ID=17;	name=eSS2_z1_2; Start Vertex=vSS1_z1_2 (ID=7); Last Vertex=vSS2_z1_2 (ID=11)
	spline 7 11 ( (-26.93475258448099 42.14002874207643 1.0) (-26.247990803454513 42.57197419696959 1.0) (-25.567124376232115 42.985135840317916 1.0) (-24.891931936291787 43.38045693666008 1.0) (-24.221897228098044 43.758971884562285 1.0) (-23.55667001823292 44.12153754705187 1.0) (-22.896475145160156 44.46864572326365 1.0) (-22.241289170545752 44.80089186188458 1.0) (-21.591386654528936 45.11869268802853 1.0) (-20.947433042394312 45.422272211504705 1.0) (-20.31013507824715 45.7118517720405 1.0) (-19.68012362336822 45.98770304017479 1.0) (-19.05835986676661 46.24997285671339 1.0) (-18.44584774008936 46.49882268216898 1.0) (-17.843282355471644 46.73456435758255 1.0) (-17.251461394592283 46.95748362804951 1.0) (-16.670954451956707 47.167963856435655 1.0) (-16.10218888552888 47.366439909840274 1.0) (-15.545419038073568 47.55339860563259 1.0) (-15.000641633987849 47.72939479870658 1.0) (-14.467740070280309 47.894992523460246 1.0) (-13.946746889745718 48.050683166781205 1.0) (-13.437174648328726 48.1970843213646 1.0) (-12.938709229196336 48.33472464823097 1.0) (-12.450880758100487 48.464141723342884 1.0) (-11.973216541634732 48.58583760281468 1.0) (-11.505371798334346 48.70024994484312 1.0) (-11.046763494472714 48.807844283935914 1.0) (-10.597108733827174 48.90898589767683 1.0) (-10.155728841749006 49.00410245527571 1.0) (-9.722320500179947 49.093511617288215 1.0) (-9.296663707360157 49.177496065909594 1.0) (-8.878081371838025 49.25640755243117 1.0) (-8.466449560574443 49.33047073714937 1.0) (-8.06137793416385 49.39994505639864 1.0) (-7.6624561503489375 49.46507483747737 1.0) (-7.269649777118535 49.52602974883821 1.0) (-6.8825210136726485 49.58303191029252 1.0) (-6.500834764466313 49.63625841563118 1.0) (-6.124370038339578 49.685873915839274 1.0) (-5.7530055653291114 49.73202126305394 1.0) (-5.386532889412762 49.77484673944538 1.0) (-5.0246921831031175 49.81449331021566 1.0)) 
	// edge ID=18;	name=zextrvSS2_z0_1; Start Vertex=vSS2_z0_1 (ID=8); Last Vertex=vSS2_z1_1 (ID=10)
	spline 8 10 () 
	// edge ID=19;	name=zextrvSS2_z0_2; Start Vertex=vSS2_z0_2 (ID=9); Last Vertex=vSS2_z1_2 (ID=11)
	spline 9 11 () 
	// edge ID=20;	name=erSS3_z0_2; Start Vertex=vSS3_z0_1 (ID=12); Last Vertex=vSS3_z0_2 (ID=13)
	spline 12 13 () 
	// edge ID=21;	name=erSS3_z1_2; Start Vertex=vSS3_z1_1 (ID=14); Last Vertex=vSS3_z1_2 (ID=15)
	spline 14 15 () 
	// edge ID=22;	name=eSS3_z0_2; Start Vertex=vSS2_z0_2 (ID=9); Last Vertex=vSS3_z0_2 (ID=13)
	spline 9 13 () 
	// edge ID=23;	name=eSS3_z0_1; Start Vertex=vSS2_z0_1 (ID=8); Last Vertex=vSS3_z0_1 (ID=12)
	spline 8 12 ( (0.23850161470354728 0.29328208514263043 0.0) (0.24651881739057313 0.2939902219175029 0.0) (0.25453542464046264 0.29464320116727016 0.0) (0.26255137142216256 0.29524179047010946 0.0) (0.270566612060199 0.2957866861421069 0.0) (0.27858044639626955 0.2962785475569115 0.0) (0.2865928969210372 0.2967180689121915 0.0) (0.2946039828226008 0.29710587980104536 0.0) (0.30261323602467405 0.2974426032749089 0.0) (0.31062069379201274 0.2977288446180302 0.0) (0.3186265775007218 0.29796520891430694 0.0) (0.32663083500506895 0.2981522324659729 0.0) (0.3346334662700928 0.29829048515123535 0.0) (0.3426354608811864 0.2983804843221164 0.0) (0.350636751074106 0.29842271048501096 0.0) (0.35863831076510133 0.2984176540212907 0.0) (0.36664289248479376 0.2983657407880289 0.0) (0.3746515616411346 0.29826724119377734 0.0) (0.38266231187863525 0.29812260502737353 0.0) (0.3906905255609804 0.2979321212428941 0.0) (0.39874415381690387 0.2976947952669329 0.0) (0.4067218230319718 0.2974144397083384 0.0) (0.41455422475881726 0.29710284216941285 0.0) (0.4223202558956938 0.29676422039402134 0.0) (0.43008755299261425 0.29639748065356847 0.0) (0.4378681955328672 0.2960023973398681 0.0) (0.44565813940707416 0.29557923342607595 0.0) (0.45345155626875644 0.2951286188460179 0.0) (0.4612466771582169 0.2946509623705691 0.0) (0.4690421884786774 0.29414664447053424 0.0) (0.4768363485395735 0.293616076196773 0.0) (0.4846284238278026 0.2930596343105042 0.0) (0.49241785397858495 0.2924776652236137 0.0) (0.500204399343929 0.2918704849826609 0.0) (0.507987135086864 0.2912384508783962 0.0) (0.5157659457613005 0.2905818997487535 0.0) (0.5235412039133289 0.2899010728600268 0.0) (0.5313123564521393 0.2891962864427888 0.0) (0.5390794434535221 0.2884678204919232 0.0) (0.5468423620484328 0.28771593562679626 0.0) (0.5546012276155223 0.2869408876117195 0.0) (0.5623559573879009 0.28614291841595474 0.0) (0.5701063759501509 0.28532228785543756 0.0) (0.5778524531727346 0.2844792390909737 0.0) (0.5855945700202716 0.2836139575861019 0.0) (0.593332435847733 0.2827266775337717 0.0) (0.6010664151222519 0.28181758037858873 0.0) (0.60879626291768 0.28088686853718947 0.0) (0.6165216734471362 0.27993478978322056 0.0) (0.6242430853194594 0.2789614873872189 0.0) (0.6319605028083284 0.27796712879273056 0.0) (0.6396737900452087 0.27695190303621553 0.0) (0.6473830583936929 0.27591596574396116 0.0) (0.6550882702428401 0.2748594767708109 0.0) (0.6627895017435808 0.2737825820453268 0.0) (0.6704865158885024 0.2726854560627284 0.0) (0.6781796853949906 0.27156820347949484 0.0) (0.6858688560022979 0.2704309586625726 0.0) (0.693554141187697 0.26927384918065944 0.0) (0.7012356359219601 0.26809696321979715 0.0) (0.708913019745078 0.2669004710238112 0.0) (0.7165864608659316 0.2656844578704456 0.0) (0.7242558516117373 0.2644490494926166 0.0) (0.7319214398109317 0.2631943084113598 0.0) (0.7395832375619968 0.26192031295555285 0.0) (0.7472411993322261 0.2606271630164282 0.0) (0.7548952927953225 0.2593149318220406 0.0) (0.7625453010997524 0.25798374419505526 0.0) (0.7701915154219485 0.2566336257477569 0.0) (0.7778339113705245 0.2552646369302536 0.0) (0.7854726317681543 0.25387681235963927 0.0) (0.7931073818116327 0.2524702506942227 0.0) (0.8007380991013674 0.25104502322051936 0.0) (0.8083650618686271 0.24960112785228591 0.0) (0.8159880879926676 0.24813862822811156 0.0) (0.8236073728883174 0.24665753348173602 0.0) (0.8312226006091896 0.2451579112587166 0.0) (0.838834066028662 0.24363975789962636 0.0) (0.8464414805221006 0.24210311436081827 0.0) (0.8540445147543301 0.24054810100179266 0.0) (0.8616438050372346 0.23897458848498598 0.0) (0.8692385419984792 0.2373827327287917 0.0) (0.8768288443843364 0.23577254941749146 0.0) (0.8844145495405181 0.23414404638129294 0.0) (0.8919953657089933 0.2324972999026262 0.0) (0.8995704575832546 0.2308324678850475 0.0) (0.9071393253780147 0.22914968928469032 0.0) (0.9147011141561598 0.227449137654748 0.0) (0.9222544314111215 0.22573114409729625 0.0)) 
	// edge ID=24;	name=eSS3_z1_1; Start Vertex=vSS2_z1_1 (ID=10); Last Vertex=vSS3_z1_1 (ID=14)