/*--------------------------------*- C++ -*----------------------------------*\
  =========                 |
  \\      /  F ield         | OpenFOAM: The Open Source CFD Toolbox
   \\    /   O peration     | Website:  https://openfoam.org
    \\  /    A nd           | Version:  7
     \\/     M anipulation  |
\*---------------------------------------------------------------------------*/
FoamFile
{
    version     2.0;
    format      ascii;
    class       dictionary;
    object      controlDict;
}
// * * * * * * * * * * * * * * * * * * * * * * * * * * * * * * * * * * * * * //
#include "globalVariables";

application     simpleFoam;

startFrom       startTime;

startTime       $gV_steadyStateStartTime;

stopAt          endTime;

endTime         $gV_steadyStateEndTime;

deltaT          1;

writeControl    adjustableRunTime;

writeInterval   500;

purgeWrite      0;

writeFormat     ascii;

writePrecision   6;

writeCompression off;

timeFormat      general;

timePrecision   6;

runTimeModifiable true;

functions
{
    #includeFunc residuals
    #include "forceCoeffs_object";
    #includeFunc yPlus
    #includeFunc "wallShearStress";
    #include "surface_sampling";
    
turbulenceFields1
    {
        type            turbulenceFields;
        libs            ("fieldFunctionObjects");
        fields
        (
            R
        );

        executeControl  writeTime;
        writeControl    writeTime;
    }

    
}

// ************************************************************************* //
