/*--------------------------------*- C++ -*----------------------------------*\
  =========                 |
  \\      /  F ield         | OpenFOAM: The Open Source CFD Toolbox
   \\    /   O peration     | Website:  https://openfoam.org
    \\  /    A nd           | Version:  7
     \\/     M anipulation  |
\*---------------------------------------------------------------------------*/
FoamFile
{
    version     2.0;
    format      ascii;
    class       dictionary;
    location    "system";
    object      fvSolution;
}
// * * * * * * * * * * * * * * * * * * * * * * * * * * * * * * * * * * * * * //

solvers
{
    p
    {
        solver          PCG;
        preconditioner  FDIC;
        tolerance       1e-08;
        relTol          0;
        smoother        GaussSeidel;
    }
    
    pFinal
    {
        $p;
        relTol          0;
    }

    "(U|k|omega|gammaInt|ReThetat)"
    {
        solver          smoothSolver;
        smoother        symGaussSeidel;
        tolerance       1e-08;
        relTol          0;
    }
    
    "(U|k|omega|gammaInt|ReThetat)Final"
    {
        $U;
        relTol          0;
    }
}

SIMPLE
{
    nNonOrthogonalCorrectors    2;
    nCorrectors			3;
    consistent			yes;		//SIMPLEC-Algorithmus insbesondere im stat. sonst divergent

    residualControl
        {
            U   1e-07;
            p   1e-07;
        }   
}

relaxationFactors
{
    fields
    {
        p               0.5;
    }
    equations
    {
        "(U|k|omega)"   0.7;
        "(U|k|omega)Final" 0.7;
    }
}

// ************************************************************************* //
