/*--------------------------------*- C++ -*----------------------------------*\
  =========                 |
  \\      /  F ield         | OpenFOAM: The Open Source CFD Toolbox
   \\    /   O peration     | Website:  https://openfoam.org
    \\  /    A nd           | Version:  7
     \\/     M anipulation  |
\*---------------------------------------------------------------------------*/
FoamFile
{
    version     2.0;
    format      ascii;
    class       volScalarField;
    location    "0";
    object      k;
}
// * * * * * * * * * * * * * * * * * * * * * * * * * * * * * * * * * * * * * //
#include "../system/globalVariables";


dimensions      [0 2 -2 0 0 0 0];

internalField   uniform $gV_kInlet;

boundaryField
{
    inlet
    {
        type            inletOutlet;
        value           $internalField;
	inletValue 	 $internalField;
    }

    outlet
    {
        type            inletOutlet;
        value           $internalField;
	inletValue 	 $internalField;
    }

    suction_side
    {
        type            kLowReWallFunction;
        value           $internalField;
    }

    pressure_side
    {
        type            kLowReWallFunction;
        value           $internalField;
    }

    trailing_edge
    {
        type            kLowReWallFunction;
        value           $internalField;
    }
}

// ************************************************************************* //
