/*--------------------------------*- C++ -*----------------------------------*\
  =========                 |
  \\      /  F ield         | OpenFOAM: The Open Source CFD Toolbox
   \\    /   O peration     | Website:  https://openfoam.org
    \\  /    A nd           | Version:  7
     \\/     M anipulation  |
\*---------------------------------------------------------------------------*/
FoamFile
{
    version     2.0;
    format      ascii;
    class       volScalarField;
    location    "0";
    object      omega;
}
// * * * * * * * * * * * * * * * * * * * * * * * * * * * * * * * * * * * * * //

#include "../system/globalVariables";

dimensions      [0 0 -1 0 0 0 0];

internalField   uniform $gV_omegaInlet;

boundaryField
{
    inlet
    {
        type            inletOutlet;
        inletValue      $internalField;
        value           $internalField;
    }

    outlet
    {
        type            inletOutlet;
        inletValue      $internalField;
        value           $internalField;
    }

   suction_side
    {
        type            omegaWallFunction;
        value           $internalField;
    }

    pressure_side
    {
        type            omegaWallFunction;
        value           $internalField;
    }

    trailing_edge
    {
        type            omegaWallFunction;
        value           $internalField;
    }
}

// ************************************************************************* //
