/*--------------------------------*- C++ -*----------------------------------*\
  =========                 |
  \\      /  F ield         | OpenFOAM: The Open Source CFD Toolbox
   \\    /   O peration     | Website:  https://openfoam.org
    \\  /    A nd           | Version:  7
     \\/     M anipulation  |
\*---------------------------------------------------------------------------*/
FoamFile
{
    version     2.0;
    format      ascii;
    class       volScalarField;
    object      p;
}
// * * * * * * * * * * * * * * * * * * * * * * * * * * * * * * * * * * * * * //
#include "../system/globalVariables";

dimensions      [0 2 -2 0 0 0 0];

internalField   uniform 0.0;

boundaryField
{
    inlet
    {
        type            freestreamPressure;
        freestreamValue $internalField;
    }

    outlet
    {
        type            freestreamPressure;
        freestreamValue $internalField;
    }

    suction_side
    {
        type            zeroGradient;
    }

    pressure_side
    {
        type            zeroGradient;
    }

    trailing_edge
    {
        type            zeroGradient;
    }
}

// ************************************************************************* //
