/*--------------------------------*- C++ -*----------------------------------*\
  =========                 |
  \\      /  F ield         | OpenFOAM: The Open Source CFD Toolbox
   \\    /   O peration     | Website:  https://openfoam.org
    \\  /    A nd           | Version:  7
     \\/     M anipulation  |
\*---------------------------------------------------------------------------*/
FoamFile
{
    version     2.0;
    format      ascii;
    class       volVectorField;
    object      U;
}
// * * * * * * * * * * * * * * * * * * * * * * * * * * * * * * * * * * * * * //

#include "../system/globalVariables";

dimensions      [0 1 -1 0 0 0 0];

internalField   $gV_UInlet;

boundaryField
{
    inlet
    {
        type            freestreamVelocity;
        freestreamValue uniform $gV_UInlet;
    }

    outlet
    {
        type            freestreamVelocity;
        freestreamValue uniform $gV_UInlet;
    }

    suction_side
    {
        type           fixedValue;
        value          uniform (0 0 0);
    }

    pressure_side
    {
        type           fixedValue;
        value          uniform (0 0 0);
    }

    trailing_edge
    {
        type           fixedValue;
        value          uniform (0 0 0);
    }
}

// ************************************************************************* //
